/*--------------------------------*- C++ -*----------------------------------*\
| =========                 |                                                 |
| \\      /  F ield         | OpenFOAM: The Open Source CFD Toolbox           |
|  \\    /   O peration     | Version:  v2006                                 |
|   \\  /    A nd           | Website:  www.openfoam.com                      |
|    \\/     M anipulation  |                                                 |
\*---------------------------------------------------------------------------*/
FoamFile
{
    version     2.0;
    format      ascii;
    class       dictionary;
    object      controlDict;
}
// * * * * * * * * * * * * * * * * * * * * * * * * * * * * * * * * * * * * * //

application     simpleFoam;

startFrom       latestTime;

startTime       0;

stopAt          endTime;

endTime         2000;

deltaT          1;

writeControl    adjustable;

writeInterval   100;

purgeWrite      1;

writeFormat     binary;

writePrecision   8;

writeCompression off;

timeFormat      general;

timePrecision   6;

runTimeModifiable true;

functions
{
    #include "FO_forces"

    // TODO: purge write = 1
    surface
    {
        type            surfaces;
        libs            (sampling);
        writeControl    writeTime;
        startTime       0;

        surfaceFormat   raw;
        fields          (p);

        surfaces
        {
            airfoil
            {
                type            patch;
                patches         (airfoil);
                interpolate     true;
                invariant       true;
                surfaceFormat   raw;
            }
        }
    }

    wallShearStress
    {
        type            wallShearStress;
        libs            (fieldFunctionObjects);
        patches         (airfoil);
        log             true;
        executeControl  writeTime;
        executeInterval 1;
        writeControl    writeTime;
        writeInterval   1;
    }

    yPlus
    {
        type            yPlus;
        libs            (fieldFunctionObjects);
        log             true;
        writeFields     false;
        executeControl  timeStep;
        executeInterval 1;
        writeControl    timeStep;
        writeInterval   1;
    }
   
    solverInfo
    {
        type            solverInfo;
        libs            ("libutilityFunctionObjects.so");
        fields          (U p omega k ReThetat gammaInt);
        writeResidualFields no;
        executeControl  timeStep;
        executeInterval 1;
        writeControl    timeStep;
        writeInterval   1;
    }
}

// ************************************************************************* //
