/*--------------------------------*- C++ -*----------------------------------*\
| =========                 |                                                 |
| \\      /  F ield         | OpenFOAM: The Open Source CFD Toolbox           |
|  \\    /   O peration     | Version:  v2406                                 |
|   \\  /    A nd           | Website:  www.openfoam.com                      |
|    \\/     M anipulation  |                                                 |
\*---------------------------------------------------------------------------*/
FoamFile
{
    version     2.0;
    format      ascii;
    class       volScalarField;
    object      k;
}
// * * * * * * * * * * * * * * * * * * * * * * * * * * * * * * * * * * * * * //

dimensions      [0 0 0 0 0 0 0];

internalField   uniform 0.1;  // Tu = 1 should be 0.01 -> floating point expection 

boundaryField
{
    outerBoundary
    {
        type            inletOutlet;
        inletValue      $internalField;
        value           $internalField;
    }

    airfoil
    {
        type            zeroGradient;
    }

    Front
    {
        type            empty;
    }

    Back
    {
        type            empty;
    }
    
    processor
    {
        type  processor;
        value $internalField;
    }
}
